%chk=mol.chk
# B3LYP/6-31G(d) opt freq 

Gaussian Input

0 1
O      -0.31379400    0.87393900    1.10194400
O       0.16841200    1.51760700   -0.01084900
H      -0.56594400    1.48315700   -0.63634600
N       0.00276000   -1.19378600   -1.01249000
N       0.12311700   -1.38169300    0.34393800
H      -0.80721300   -1.66257000   -1.38796800
H       0.83554800   -1.34805700   -1.55788400
H      -0.20902800   -0.38602200    0.83800600
H       1.11326800   -1.42818000    0.56740500


