%chk=mol.chk
# B3LYP/6-31G(d) opt freq 

Gaussian Input

0 1
N      -0.50876900   -1.65447700   -0.39359400
N       0.22299700   -1.52525300   -1.50992100
H      -0.46629100   -0.52584500    0.09866600
H       0.49259900   -2.40481000   -1.92641600
H       0.95667500   -0.82463200   -1.52237600
C       0.11809600    0.98407000    1.86128800
C      -0.20933800    0.78688700    0.42233100
N      -0.23291500    1.66946400   -0.45664200
H       0.35646500    2.02911200    2.06401200
H      -0.73043600    0.67361800    2.47376900
H       0.96173200    0.34942200    2.13844300
H      -0.50190800    1.32934000   -1.37919200


