%chk=mol.chk
# B3LYP/6-31G(d) opt freq 

Gaussian Input

0 1
C       1.88503400   -0.26076700    0.70907100
O       0.82681100   -1.14161000    0.88923900
H       2.78143800   -0.77310100    1.07744400
H       1.77231000    0.66798500    1.28312900
H       2.05942800   -0.01520800   -0.34706600
C      -0.86156600   -0.03160100   -1.65119800
C      -1.11016400    0.07822900   -0.16819500
C      -1.06225800    1.47285600    0.40207500
H       0.09069300    0.42966300   -1.92408400
H      -1.64683700    0.48476900   -2.21321500
H      -0.84266200   -1.07166100   -1.97705700
H      -0.21773500   -0.57194200    0.38350300
H      -1.99388900   -0.47657100    0.15344600
H      -1.87478300    2.08331000   -0.00555600
H      -1.16181700    1.46511000    1.48801400
H      -0.12338400    1.97017800    0.14689400


