%chk=mol.chk
# B3LYP/6-31G(d) opt freq 

Gaussian Input

0 1
N       2.59162800    0.65863000   -0.36582100
H       3.25488400    0.02086700    0.07816600
H       2.16618200    0.10107900   -1.10964100
C      -0.56531200   -0.57027000   -1.95981900
C      -0.59672100   -0.71057000   -0.64377000
C      -0.62322600    0.41458500    0.35001000
C       0.60046800    0.37628400    1.24327800
C      -1.90696100    0.35625300    1.18901900
H      -0.55402700   -1.42718700   -2.62174700
H      -0.55372100    0.41107000   -2.42242000
H      -0.60810100   -1.71188200   -0.21558200
H      -0.61607200    1.35982100   -0.20158800
H       1.62497800    0.61048800    0.49337000
H       0.77180300   -0.58987500    1.71905900
H       0.64404300    1.18998200    1.96717600
H      -1.95986500   -0.58011000    1.75004900
H      -2.78975000    0.41947100    0.55064100
H      -1.93856800    1.17948600    1.90478300


