%chk=mol.chk
# B3LYP/6-31G(d) opt freq 

Gaussian Input

0 1
C      -0.79504600    0.08224700   -0.16035600
C       2.36229000    0.31635900    0.94505500
C      -1.09248500   -1.05370800    0.73262200
C      -1.42851800    0.06694800   -1.49257300
C       1.92194300    0.01961600   -0.45389700
C      -1.16961200   -0.98605100    2.05762200
C      -1.82388200    1.14323700   -2.16367100
H       0.43253700    0.01620900   -0.37232200
H      -0.88280500    1.04801700    0.34057700
H       2.02647500    1.30428600    1.26627400
H       3.45453300    0.29923900    1.03577800
H       1.96457600   -0.41964600    1.64671100
H      -1.21795900   -2.01973800    0.24874200
H      -1.53765300   -0.91061900   -1.95674700
H       2.08909600    0.78949900   -1.20196100
H       2.09942200   -0.98838100   -0.81930100
H      -1.05565400   -0.04409700    2.58313200
H      -1.35719200   -1.86650200    2.65836900
H      -2.25080200    1.06550400   -3.15511200
H      -1.73936000    2.13758400   -1.73884600


