%chk=mol.chk
# B3LYP/6-31G(d) opt freq 

Gaussian Input

0 1
C      -2.41327500   -1.21416800    0.61680200
C      -1.27137800   -1.01441600   -0.04289400
C       0.06377700   -0.85508400    0.53996500
C       1.19325800   -1.36413200   -0.32806500
C       0.21931500   -1.14635500    2.01249900
H      -3.35542800   -1.28399200    0.08880200
H      -2.44792900   -1.32683700    1.69362600
H      -1.31381600   -0.91748300   -1.12518200
H       0.24346800    0.45299400    0.46802100
H       1.08480500   -1.01318200   -1.35638700
H       1.21196300   -2.45869600   -0.34632000
H       2.15973000   -1.02173800    0.04791500
H       0.06638000   -2.21023200    2.22096600
H      -0.49617700   -0.58261700    2.61344300
H       1.22249700   -0.88051000    2.35061800
C       0.46720500    2.21773000   -2.07534000
C      -0.10655600    2.21588900   -0.86533000
C       0.53910400    1.78887800    0.35644500
H      -0.08211500    2.50747500   -2.96131900
H       1.50832200    1.94234600   -2.20534100
H      -1.15350000    2.49540200   -0.78908800
H       0.12507800    2.16547900    1.28732400
H       1.62627700    1.75934500    0.34200900


